/*--------------------------------*- C++ -*----------------------------------*\
| =========                 |                                                 |
| \\      /  F ield         | OpenFOAM: The Open Source CFD Toolbox           |
|  \\    /   O peration     | Version:  v1906                                 |
|   \\  /    A nd           | Web:      www.OpenFOAM.com                      |
|    \\/     M anipulation  |                                                 |
\*---------------------------------------------------------------------------*/
FoamFile
{
    version     2.0;
    format      ascii;
    class       dictionary;
    object      dynamicMeshDict;
}
// * * * * * * * * * * * * * * * * * * * * * * * * * * * * * * * * * * * * * //

dynamicFvMesh   dynamicMotionSolverFvMesh;

motionSolverLibs   ("libsixDoFRigidBodyMotion.so");

solver            sixDoFRigidBodyMotion;


sixDoFRigidBodyMotionCoeffs
{
    report          on;

    solver
    {
        type Newmark; // symplectic;
    }

    patches         (cylinder1);
    innerDistance   0.3;
    outerDistance   3;
    
    rho             rhoInf;
    //rhoInf          1;
    rhoInf            1;

    centreOfMass    (0 0 0);
    mass            0.1;
    momentOfInertia (1 1 0.03);//mass
   
    //mass            0.03575;
    //centreOfMass    (-1 0.0 0.0);
    //momentOfInertia (1.144E-08 1.144E-08 1.144E-08);
    transform       (1 0 0 0 1 0 0 0 1) (2.929541 0 0.2);

    //accelerationRelaxation 0.4;
    accelerationRelaxation 1.0;
    accelerationDamping 1.0;

    constraints
    {
        yPlan
        {
            sixDoFRigidBodyMotionConstraint plane;
            normal            (0 1 0);
        }
        yAxis
        {
            sixDoFRigidBodyMotionConstraint orientation;
            centreOfRotation            (0 1 0);
        }
        
    }

    restraints
    {
       spring
       {
		sixDoFRigidBodyMotionRestraint linearSpring;
		body cylinder1;
		anchor          (0.0 1 0.0);
		refAttachmentPt (0.0 0 0.0);
		stiffness       102.97;
		damping         0.00;
		restLength      1;
       }   
        //verticalSpring1
        //{
         //   sixDoFRigidBodyMotionRestraint linearSpring;
         //   body cylinder1;
         //   anchor          (-1 0 0);
         //   refAttachmentPt (-1 0 0);
         //   stiffness       10.04;
         //   damping         0;
          //  restLength      0;//1
        //}
        //horizontalSpring1
       // {
        //    sixDoFRigidBodyMotionRestraint linearSpring;
        //    body cylinder1;
        //    anchor          (0 1 0);
        //    refAttachmentPt (0 1 0);
        //    stiffness       10.004;
        //    damping         0;
            //restLength      0;//1
        //}
    }

}


// ************************************************************************* //
