/*--------------------------------*- C++ -*----------------------------------*\
| =========                 |                                                 |
| \\      /  F ield         | OpenFOAM: The Open Source CFD Toolbox           |
|  \\    /   O peration     | Version:  v2112                                 |
|   \\  /    A nd           | Website:  www.openfoam.com                      |
|    \\/     M anipulation  |                                                 |
\*---------------------------------------------------------------------------*/
FoamFile
{
    version     2.0;
    format      ascii;
    class       dictionary;
    object      dynamicMeshDict;
}
// * * * * * * * * * * * * * * * * * * * * * * * * * * * * * * * * * * * * * //

dynamicFvMesh   dynamicMotionSolverFvMesh;

motionSolverLibs (sixDoFRigidBodyMotion);

motionSolver    sixDoFRigidBodyMotion;

// Not necessarily useful here, but can have different motion updates types
updateControl   timeStep;
updateInterval  1;

sixDoFRigidBodyMotionCoeffs
{
	patches         ( cylinder1 );
   
   innerDistance   0.3;
    outerDistance   3;

    rho             rhoInf;
    rhoInf          1;

    centreOfMass    (0 0 0);
    mass            0.1; //10.1
    g               (0  -9.81 0);
    angularMomentum (0 0 -2);
    //g               (0 0 -9.81);
    momentOfInertia (1 1 0.03);
    //transform       (1 0 0 0 1 0 0 0 1) (2.929541 0 0.2);
    orientation
    (
	    0.9953705935 0.09611129781 0
	    -0.09611129781 0.9953705935 0
	    0 0 1
    );
    velocity (0.0 0.0 0.0);
    accelerationRelaxation 1.0;
    //accelerationRelaxation 0.4;
    accelerationDamping 1.0;
    //origin    (0.0 0.0 0.0);
    CofR      (0.0 0.0 0.0);
    report          on;

    constraints
    {
       
        fixedLine
        {
            sixDoFRigidBodyMotionConstraint line;
            direction           (0 1 0); //(1 0 0)
        }
        // eliminates any rotational motion
        noRotate
        {
            sixDoFRigidBodyMotionConstraint orientation;
            centreOfRotation           (0 0 0);
        }

	solver
	{
	    type symplectic;
	    //type CrankNicolson;
	    	    //type Newmark;
	}

	constraints
	{

	    yLine
	    {
		sixDoFRigidBodyMotionConstraint line;
		centreOfRotation    (0.0 0.0 0.0);
		direction           (0 1 0);
	    }

	    zAxis
	    {
		sixDoFRigidBodyMotionConstraint axis;
		axis                (0 0 1);
	    }
	}
	sixDoFRigidBodyMotionConstraint orientation;
	centreOfRotation                (0 1 0);
	}*/
    }

    restraints
    {
        verticalSpring1
        {
            sixDoFRigidBodyMotionRestraint linearSpring;
            body cylinder1;
            anchor          (0 -1 0);
            refAttachmentPt (0 0 0);
            stiffness       0.135114884 ;//0.004// 0.15791367// St=0.185
            damping         0.4; //0.002
            restLength      1;
        }
        /*verticalSpring2
        {
            sixDoFRigidBodyMotionRestraint linearSpring;
            body cylinder1;
            anchor          (0 1 0);
            refAttachmentPt (0 0 0);
            stiffness       0.004;
            damping         0.04;
            restLength      1;//1
        }*/
    }

   
 }  


// ************************************************************************* //
