/*--------------------------------*- C++ -*----------------------------------*\
| =========                 |                                                 |
| \\      /  F ield         | OpenFOAM: The Open Source CFD Toolbox           |
|  \\    /   O peration     | Version:  2.2.2                                 |
|   \\  /    A nd           | Web:      www.OpenFOAM.org                      |
|    \\/     M anipulation  |                                                 |
\*---------------------------------------------------------------------------*/
FoamFile
{
    version     2.0;
    format      ascii;
    class       dictionary;
    location    "system";
    object      ITHACAdict;
}

// EigenValue solver, can be eigen or spectra
EigenSolver eigen;

// Number of modes to output and to use for projection
NmodesUout 10;
NmodesUproj 5;
NmodePUout 10;
NmodesPproj 5;
NmodesSUPout 15;
NmodesSUPproj 10;

// Output format to save market vectors.
OutPrecision 20;
OutType fixed;


bcMethod penalty;
warning false;

// // Specific problem of a stationary case
//tolerance 1e-5;

// // Reduced simple cicle parameters
residualJumpLim 1e-5;
normalizedResidualLim 1e-5;

// // Inlet boundary conditions velocities.
 online_velocities vel.txt;

// // Do not export middle fields for this case
// middleExport false;
